**  ANSA_VERSION;25.1.3;
** 
** 
**   file created by  A N S A  Mon Jan 12 15:17:24 2026
** 
**   output from :
** 
**   D:/Charlotte/cmb247 - Segmentation/N01-015/N01-015_2026-01-09-PATIENTSPECIF
** I
**  CM
**   ODS_LF_thick.ansa
** 
**   Settings :
** 
**   Output format : 2022
** 
**   Output : Visible
** 
*Heading
** Job name: Job-302-test Model name: Job-212
** Generated by: Abaqus/CAE 2022
*Preprint, echo=NO, model=NO, history=NO, contact=NO
**
** PARTS
**
*Part, name=PART-1_1
*Node
  76396,   2.59249854,  -154.641357,  -204.902969
  76397,   2.64263678,  -153.678101,  -206.049805
  76398,    2.7977376,  -152.917114,  -207.322647
  76399,   2.96507382,  -152.294708,  -208.675247
  76400,   3.00226188,   -151.61853,  -210.008667
  76401,   3.01856399,  -150.952194,  -211.350525
  76402,   3.06152678,  -154.060272,  -204.588821
  76403,    3.1084075,  -153.132248,  -205.756195
  76404,   3.25287223,    -152.3405,  -207.006638
  76405,   3.39678121,  -151.658676,  -208.320984
  76406,   3.43528628,  -150.933548,  -209.619812
  76407,   3.45731926,  -150.216324,    -210.9254
  76408,   3.31577325,  -153.396759,  -204.203323
  76409,   3.35152483,  -152.505692,   -205.38945
  76410,   3.47748256,  -151.684906,  -206.615723
  76411,   3.59009314,  -150.945404,  -207.890045
  76412,   3.62204432,  -150.173019,  -209.152496
  82182,   3.64193678,  -149.406647,  -210.420074
  82184,   3.27843404,  -152.708618,   -203.77977
  82187,   3.31932282,  -151.859497,  -204.985321
** ... 3166 like lines cut
*Element, type=C3D8
 8782, 76396, 82210, 82548, 76402, 76397, 82211, 82551, 76403
 8783, 76397, 82211, 82551, 76403, 76398, 82212, 82554, 76404
 8784, 76398, 82212, 82554, 76404, 76399, 82539, 82556, 76405
 8785, 76399, 82539, 82556, 76405, 76400, 82542, 82559, 76406
 8786, 76400, 82542, 82559, 76406, 76401, 82546, 82563, 76407
 8787, 76402, 82548, 82565, 76408, 76403, 82551, 82569, 76409
 8788, 76403, 82551, 82569, 76409, 76404, 82554, 82572, 76410
 8789, 76404, 82554, 82572, 76410, 76405, 82556, 82574, 76411
 8790, 76405, 82556, 82574, 76411, 76406, 82559, 82577, 76412
 8791, 76406, 82559, 82577, 76412, 76407, 82563, 82578, 82182
 8792, 76408, 82565, 82581, 82184, 76409, 82569, 82582, 82187
 8793, 76409, 82569, 82582, 82187, 76410, 82572, 82585, 82189
 8794, 76410, 82572, 82585, 82189, 76411, 82574, 82588, 82193
 8795, 76411, 82574, 82588, 82193, 76412, 82577, 82589, 82194
 8796, 76412, 82577, 82589, 82194, 82182, 82578, 82592, 82195
 8797, 82184, 82581, 82593, 82196, 82187, 82582, 82596, 82197
 8798, 82187, 82582, 82596, 82197, 82189, 82585, 82598, 82199
 8799, 82189, 82585, 82598, 82199, 82193, 82588, 82601, 82200
 8800, 82193, 82588, 82601, 82200, 82194, 82589, 82604, 82201
 8801, 82194, 82589, 82604, 82201, 82195, 82592, 82606, 82202
** ... 2300 like lines cut
*Elset, elset=SET-1
  8782,  8783,  8784,  8785,  8786,  8787,  8788,  8789,  8790,  8791,  8792,  8793,  8794,  8795,  8796,  8797
  8798,  8799,  8800,  8801,  9325,  9326,  9327,  9328,  9339,  9340,  9341,  9342,  9343,  9344, 16857, 16862
 23005, 23006, 23007, 23008, 23009, 23010, 23011, 23012, 23013, 23014, 23015, 23032, 23037, 23042, 23043, 23044
 23893, 23894, 23895, 23896, 23897, 23898, 23899, 23900, 27599, 27604, 29631, 29632, 29633, 29634, 29635, 29636
 29637, 29638, 29639, 29640, 29641, 30264, 30269, 30274, 30275, 30276, 30305, 30306, 30307, 30308, 30309, 30310
 30311, 30312, 30332, 30337, 73169, 73170, 73171, 73172, 73173, 73174, 73175, 73176, 73177, 73178, 73179, 73184
 73189, 73194, 73195, 73196, 73197, 73198, 73199, 73200, 73201, 73202, 73203, 73204, 73205, 73206, 73207, 73208
 73209, 73210, 73211, 73212, 73213, 73214, 73215, 73216, 73217, 73218, 73219, 73220, 73221, 73222, 73223, 73224
 73225, 73226, 73227, 73228, 73229, 73230, 73231, 73232, 73233, 73234, 73235, 73236, 73237, 73238, 73239, 73240
 73241, 73242, 73243, 73244, 73245, 73246, 73247, 73248, 73249, 73250, 73251, 73252, 73253, 73254, 73270, 73271
 73272, 73273, 73274, 73275, 73276, 73277, 73278, 73279, 73295, 73296, 73297, 73298, 73299, 73300, 73363, 73364
 73365, 73366, 73382, 73383, 73384, 73385, 73386, 73387, 73388, 73389, 73390, 73391, 73407, 73408, 73409, 73410
 73411, 73412, 73413, 73414, 73415, 73416, 73432, 73433, 73434, 73435, 73436, 73437, 73438, 73439, 73440, 73441
 73457, 73458, 73459, 73460, 73461, 73462, 73463, 73464, 73465, 73466, 73467, 73468, 73469, 73470, 73471, 73472
 73473, 73474, 73475, 73476, 73477, 73478, 73479, 73480, 73481, 73482, 73483, 73484, 73485, 73486, 73487, 73488
 73489, 73490, 73491, 73492, 73493, 73494, 73495, 73496, 73497, 73498, 73499, 73500, 73501, 73502, 73503, 73504
 73505, 73506, 73507, 73508, 73509, 73510, 73523, 73524, 73525, 73526, 73527, 73528, 73529, 73530, 73543, 73544
 73545, 73546, 73547, 73548, 73549, 73550, 73563, 73564, 73565, 73566, 73567, 73568, 73569, 73570, 73583, 73584
 73585, 73586, 73587, 73588, 73589, 73590, 73603, 73604, 73605, 73606, 73607, 73608, 73609, 73610, 73623, 73624
 73625, 73626, 73627, 73628, 73629, 73630, 73631, 73632, 73633, 73634, 73635, 73636, 73637, 73638, 73639, 73640
** ... 62 like lines cut
*Elset, elset=SET-2
  8782,  8783,  8784,  8785,  8786,  8787,  8788,  8789,  8790,  8791,  8792,  8793,  8794,  8795,  8796,  8797
  8798,  8799,  8800,  8801,  9325,  9326,  9327,  9328,  9339,  9340,  9341,  9342,  9343,  9344, 16857, 16862
 23005, 23006, 23007, 23008, 23009, 23010, 23011, 23012, 23013, 23014, 23015, 23032, 23037, 23042, 23043, 23044
 23893, 23894, 23895, 23896, 23897, 23898, 23899, 23900, 27599, 27604, 29631, 29632, 29633, 29634, 29635, 29636
 29637, 29638, 29639, 29640, 29641, 30264, 30269, 30274, 30275, 30276, 30305, 30306, 30307, 30308, 30309, 30310
 30311, 30312, 30332, 30337, 73169, 73170, 73171, 73172, 73173, 73174, 73175, 73176, 73177, 73178, 73179, 73184
 73189, 73194, 73195, 73196, 73197, 73198, 73199, 73200, 73201, 73202, 73203, 73204, 73205, 73206, 73207, 73208
 73209, 73210, 73211, 73212, 73213, 73214, 73215, 73216, 73217, 73218, 73219, 73220, 73221, 73222, 73223, 73224
 73225, 73226, 73227, 73228, 73229, 73230, 73231, 73232, 73233, 73234, 73235, 73236, 73237, 73238, 73239, 73240
 73241, 73242, 73243, 73244, 73245, 73246, 73247, 73248, 73249, 73250, 73251, 73252, 73253, 73254, 73270, 73271
 73272, 73273, 73274, 73275, 73276, 73277, 73278, 73279, 73295, 73296, 73297, 73298, 73299, 73300, 73363, 73364
 73365, 73366, 73382, 73383, 73384, 73385, 73386, 73387, 73388, 73389, 73390, 73391, 73407, 73408, 73409, 73410
 73411, 73412, 73413, 73414, 73415, 73416, 73432, 73433, 73434, 73435, 73436, 73437, 73438, 73439, 73440, 73441
 73457, 73458, 73459, 73460, 73461, 73462, 73463, 73464, 73465, 73466, 73467, 73468, 73469, 73470, 73471, 73472
 73473, 73474, 73475, 73476, 73477, 73478, 73479, 73480, 73481, 73482, 73483, 73484, 73485, 73486, 73487, 73488
 73489, 73490, 73491, 73492, 73493, 73494, 73495, 73496, 73497, 73498, 73499, 73500, 73501, 73502, 73503, 73504
 73505, 73506, 73507, 73508, 73509, 73510, 73523, 73524, 73525, 73526, 73527, 73528, 73529, 73530, 73543, 73544
 73545, 73546, 73547, 73548, 73549, 73550, 73563, 73564, 73565, 73566, 73567, 73568, 73569, 73570, 73583, 73584
 73585, 73586, 73587, 73588, 73589, 73590, 73603, 73604, 73605, 73606, 73607, 73608, 73609, 73610, 73623, 73624
 73625, 73626, 73627, 73628, 73629, 73630, 73631, 73632, 73633, 73634, 73635, 73636, 73637, 73638, 73639, 73640
** ... 62 like lines cut
*Elset, elset=SET-3
  8782,  8783,  8784,  8785,  8786,  8787,  8788,  8789,  8790,  8791,  8792,  8793,  8794,  8795,  8796,  8797
  8798,  8799,  8800,  8801,  9325,  9326,  9327,  9328,  9339,  9340,  9341,  9342,  9343,  9344,  9345,  9346
 16803, 16804, 16857, 16858, 16859, 16860, 16861, 16862, 21049, 21050, 21051, 21052, 23005, 23006, 23007, 23008
 23009, 23010, 23011, 23012, 23013, 23014, 23015, 23016, 23017, 23018, 23031, 23032, 23033, 23034, 23035, 23036
 23037, 23038, 23039, 23040, 23041, 23042, 23043, 23044, 23893, 23894, 23895, 23896, 23897, 23898, 23899, 23900
 27563, 27564, 27565, 27566, 27599, 27600, 27601, 27602, 27603, 27604, 27605, 27606, 29629, 29630, 29631, 29632
 29633, 29634, 29635, 29636, 29637, 29638, 29639, 29640, 29641, 29642, 30201, 30262, 30263, 30264, 30265, 30266
 30267, 30268, 30269, 30270, 30271, 30272, 30273, 30274, 30275, 30276, 30305, 30306, 30307, 30308, 30309, 30310
 30311, 30312, 30313, 30314, 30315, 30316, 30332, 30333, 30334, 30335, 30336, 30337, 30338, 30339, 30340, 30341
 73169, 73170, 73171, 73172, 73173, 73174, 73175, 73176, 73177, 73178, 73179, 73180, 73181, 73182, 73183, 73184
 73185, 73186, 73187, 73188, 73189, 73190, 73191, 73192, 73193, 73194, 73195, 73196, 73197, 73198, 73199, 73200
 73201, 73202, 73203, 73204, 73205, 73206, 73207, 73208, 73209, 73210, 73211, 73212, 73213, 73214, 73215, 73216
 73217, 73218, 73219, 73220, 73221, 73222, 73223, 73224, 73225, 73226, 73227, 73228, 73229, 73230, 73231, 73232
 73233, 73234, 73235, 73236, 73237, 73238, 73239, 73240, 73241, 73242, 73243, 73244, 73245, 73246, 73247, 73248
 73249, 73250, 73251, 73252, 73253, 73254, 73255, 73256, 73257, 73258, 73259, 73260, 73261, 73262, 73263, 73264
 73265, 73266, 73267, 73268, 73269, 73270, 73271, 73272, 73273, 73274, 73275, 73276, 73277, 73278, 73279, 73280
 73281, 73282, 73283, 73284, 73285, 73286, 73287, 73288, 73289, 73290, 73291, 73292, 73293, 73294, 73295, 73296
 73297, 73298, 73299, 73300, 73363, 73364, 73365, 73366, 73367, 73368, 73369, 73370, 73371, 73372, 73373, 73374
 73375, 73376, 73377, 73378, 73379, 73380, 73381, 73382, 73383, 73384, 73385, 73386, 73387, 73388, 73389, 73390
 73391, 73392, 73393, 73394, 73395, 73396, 73397, 73398, 73399, 73400, 73401, 73402, 73403, 73404, 73405, 73406
** ... 125 like lines cut
** Section: Section-5-SET-3
*Solid Section, elset=SET-3, material=CORD
,
*End Part
**  
**
** ASSEMBLY
**
*Assembly, name=Assembly
**  
*Instance, name=PART-1_1-1, part=PART-1_1
*End Instance
**  
*Node
      1,  -4.82850838,   -186.04187,  -85.0207977
      2,  0.822415888,  -167.909302,  -222.203705
      3,  -5.62380505,  -174.271973,   -105.97538
      4,  0.999660552,   -149.40181,  -215.725861
*Nset, nset=M_SET-3
 1,
*Nset, nset=M_SET-4
 2,
*Nset, nset=M_SET-10
 4,
*Nset, nset=SET-5, instance=PART-1_1-1
 89942, 89944, 89946, 89949, 89950, 89952, 89954, 89956, 89960, 89964, 89965, 89968, 89971, 89973, 89974, 89976
 89977, 89979, 89980, 89983, 89984, 89985, 89988, 89989, 89990, 89992, 89993, 89995, 90002, 90005, 90007, 90013
 90015, 90017, 90023, 90024, 90025, 90027, 90028, 90029, 90032, 90033, 90034, 90036, 90037, 90038, 90042, 90043
 90044, 90045, 90046, 90047, 90048, 90051, 90052, 90053, 90055, 90056, 90057, 90060, 90063, 90072, 90076, 90078
 90082, 90088, 90090, 90093, 90095, 90096, 90097, 90098, 90099, 90101, 90102, 90109, 90116, 90120, 90125, 90129
 90132, 90135, 90139, 90140, 90141, 90142, 90143, 90144, 90145, 90151, 90153, 90160, 90164, 90168, 90177, 90179
 90180, 90184, 90186, 90189, 90190, 90192, 90195, 90200, 90202, 90204, 90206, 90208, 90212, 90216, 90218, 90221
 90225, 90229, 90230, 90231, 90232, 90234, 90237, 90239, 90242, 90243, 90245, 90247, 90251, 90253, 90254, 90256
 90261, 90262, 90266, 90267, 90271, 90274, 90276, 90283, 90286, 90288, 90290, 90293, 90295, 90297, 90300, 90302
 90304, 90307, 90309, 90314, 90316, 90323, 90325, 90332, 90335, 90347, 90349, 90352, 90355, 90357, 90360, 90362
 90365, 90368, 90373, 90376, 90378, 90384, 90385, 90389, 90393, 90420, 90424, 90427, 90430, 90433, 90435, 90441
 90443, 90446, 90479, 90487, 90488, 90493, 90496, 90499, 90504, 90506, 90543, 90549, 90551, 90553, 90562, 90565
 90573, 90576, 90590, 90599, 90601, 90605, 90607, 90610, 90618, 90620, 90626, 90630, 90646, 90655, 90658, 90666
 90668, 90675, 90677, 90685, 90687, 90704, 90710, 90712, 90727, 90730, 90741, 90743, 90752, 90754, 90761, 90776
 90782, 90784, 90804, 90806, 90836, 90854, 90862, 90869, 90915, 90918, 90919, 90923, 90927, 90931, 90935, 90938
 90939, 90942, 90943, 90947, 90951, 90955
*Nset, nset=SET-6-CORD, instance=PART-1_1-1
 76396, 76397, 76398, 76399, 76400, 76401, 76402, 76403, 76404, 76405, 76406, 76407, 76408, 76409, 76410, 76411
 76412, 82182, 82184, 82187, 82189, 82193, 82194, 82195, 82196, 82197, 82199, 82200, 82201, 82202, 82204, 82205
 82206, 82207, 82208, 82209, 82210, 82211, 82212, 82539, 82542, 82546, 82548, 82551, 82554, 82556, 82559, 82563
 82565, 82569, 82572, 82574, 82577, 82578, 82581, 82582, 82585, 82588, 82589, 82592, 82593, 82596, 82598, 82601
 82604, 82606, 82609, 82612, 82614, 82616, 82617, 82622, 83383, 83386, 83388, 83467, 83470, 83471, 83472, 83475
 83478, 83479, 83480, 83483, 83484, 83487, 83490, 83492, 83495, 83496, 83499, 83503, 83569, 83593, 83605, 83609
 83642, 83685, 83741, 83743, 83746, 83747, 83750, 83753, 83755, 83758, 83761, 83763, 83766, 83769, 83771, 83773
 83775, 83778, 83781, 83782, 83785, 83787, 85603, 85605, 85607, 85611, 85613, 85615, 85619, 85621, 85623, 85627
 85629, 85631, 85635, 85637, 85639, 85643, 85645, 85647, 85651, 85653, 85655, 85659, 85661, 85663, 85666, 85668
 85670, 85673, 85675, 85677, 85680, 85682, 85684, 85690, 85692, 85694, 85698, 85700, 85702, 85706, 85708, 85710
 85716, 85719, 85722, 85727, 85730, 85733, 85739, 85742, 85745, 85746, 85748, 85750, 85751, 85753, 85756, 85761
 85764, 85766, 85769, 85772, 85775, 85778, 85781, 85784, 85786, 85788, 85790, 85887, 85889, 85891, 85894, 85896
 85898, 85901, 85903, 85905, 85908, 85910, 85912, 85915, 85917, 85919, 85922, 85924, 85926, 85929, 85931, 85933
 85997, 86000, 86003, 86006, 86009, 86012, 86015, 86063, 86066, 86069, 86072, 86075, 86078, 86081, 86124, 86127
 86130, 86133, 86136, 86139, 86142, 86206, 86208, 86211, 86213, 86226, 86228, 86231, 86233, 86236, 86238, 86302
 86304, 86309, 86314, 86322, 86327, 86334, 86337, 86340, 86342, 86344, 86345, 86346, 86347, 86348, 86349, 86350
 86351, 86355, 86357, 86360, 86365, 86370, 86375, 86380, 86386, 86391, 86419, 86420, 86421, 86422, 86423, 86426
 86427, 86428, 86429, 86432, 86433, 86434, 86435, 86436, 86438, 86439, 86440, 86441, 86444, 86445, 86446, 86447
 86448, 86454, 86455, 86456, 86457, 86458, 86459, 86460, 86461, 86462, 86463, 86464, 86465, 86466, 86467, 86558
 86559, 86560, 86561, 86564, 86565, 86566, 86567, 87145, 87147, 87149, 87151, 87153, 87155, 87157, 87181, 87182
** ... 180 like lines cut
*Nset, nset=SET-7-CORDBASE, instance=PART-1_1-1
 76401, 76407, 82182, 82195, 82202, 82209, 82546, 82563, 82578, 82592, 82606, 82622, 83471, 83483, 83496, 83609
 83747, 83763, 83778, 85605, 85621, 85637, 85653, 85668, 85682, 85700, 85719, 85742, 85753, 85772, 85788, 85896
 85910, 85924, 86000, 86063, 86081, 86139, 86226, 86302, 86334, 86346, 86355, 86380, 86422, 86432, 86439, 86447
 86458, 86464, 86560, 87145, 87157, 87189
*Nset, nset=SET-8-CORDTOP, instance=PART-1_1-1, generate
 92554,  92872,      6
*Nset, nset=SET-11-CORDSEG, instance=PART-1_1-1
 89942, 89944, 89946, 89947, 89949, 89950, 89952, 89953, 89954, 89956, 89960, 89961, 89964, 89965, 89968, 89970
 89971, 89973, 89974, 89976, 89977, 89979, 89980, 89982, 89983, 89984, 89985, 89986, 89988, 89989, 89990, 89991
 89992, 89993, 89995, 89997, 90002, 90005, 90007, 90009, 90013, 90015, 90017, 90019, 90023, 90024, 90025, 90026
 90027, 90028, 90029, 90030, 90032, 90033, 90034, 90035, 90036, 90037, 90038, 90039, 90042, 90043, 90044, 90045
 90046, 90047, 90048, 90049, 90051, 90052, 90053, 90054, 90055, 90056, 90057, 90058, 90060, 90063, 90072, 90074
 90076, 90078, 90082, 90088, 90090, 90093, 90095, 90096, 90097, 90098, 90099, 90100, 90101, 90102, 90104, 90107
 90109, 90116, 90120, 90123, 90125, 90129, 90132, 90135, 90139, 90140, 90141, 90142, 90143, 90144, 90145, 90148
 90151, 90153, 90160, 90162, 90164, 90168, 90171, 90173, 90177, 90179, 90180, 90181, 90184, 90186, 90189, 90190
 90192, 90195, 90200, 90202, 90204, 90206, 90208, 90210, 90212, 90216, 90218, 90220, 90221, 90225, 90227, 90228
 90229, 90230, 90231, 90232, 90234, 90237, 90239, 90242, 90243, 90245, 90247, 90251, 90253, 90254, 90256, 90259
 90261, 90262, 90263, 90264, 90266, 90267, 90268, 90269, 90271, 90274, 90276, 90283, 90286, 90288, 90290, 90293
 90295, 90297, 90300, 90302, 90304, 90307, 90309, 90311, 90314, 90316, 90318, 90321, 90323, 90325, 90328, 90330
 90332, 90335, 90347, 90349, 90352, 90355, 90357, 90360, 90362, 90365, 90368, 90370, 90373, 90376, 90378, 90380
 90384, 90385, 90386, 90388, 90389, 90393, 90396, 90398, 90402, 90405, 90409, 90413, 90414, 90415, 90418, 90419
 90420, 90422, 90424, 90427, 90430, 90433, 90435, 90441, 90443, 90446, 90452, 90454, 90456, 90461, 90464, 90467
 90472, 90477, 90479, 90485, 90487, 90488, 90493, 90496, 90499, 90502, 90504, 90506, 90511, 90514, 90516, 90519
 90522, 90526, 90540, 90541, 90543, 90549, 90551, 90553, 90559, 90562, 90565, 90570, 90573, 90576, 90580, 90583
 90584, 90587, 90589, 90590, 90595, 90599, 90601, 90605, 90607, 90610, 90616, 90618, 90620, 90624, 90626, 90630
 90634, 90635, 90637, 90642, 90644, 90646, 90653, 90655, 90658, 90663, 90666, 90668, 90673, 90675, 90677, 90682
 90685, 90687, 90691, 90693, 90695, 90700, 90702, 90704, 90708, 90710, 90712, 90725, 90727, 90730, 90735, 90741
** ... 4 like lines cut
*Nset, nset=SET-20-C7ISH, instance=PART-1_1-1
 76396, 76397, 76398, 76399, 76400, 76401, 76402, 76403, 76404, 76405, 76406, 76407, 76408, 76409, 76410, 76411
 76412, 82182, 82184, 82187, 82189, 82193, 82194, 82195, 82196, 82197, 82199, 82200, 82201, 82202, 82204, 82205
 82206, 82207, 82208, 82209, 82210, 82211, 82212, 82539, 82542, 82546, 82548, 82551, 82554, 82556, 82559, 82563
 82565, 82569, 82572, 82574, 82577, 82578, 82581, 82582, 82585, 82588, 82589, 82592, 82593, 82596, 82598, 82601
 82604, 82606, 82609, 82612, 82614, 82616, 82617, 82622, 83383, 83386, 83388, 83467, 83470, 83471, 83472, 83475
 83478, 83479, 83480, 83483, 83484, 83487, 83490, 83492, 83495, 83496, 83499, 83503, 83569, 83593, 83605, 83609
 83642, 83685, 83741, 83743, 83746, 83747, 83750, 83753, 83755, 83758, 83761, 83763, 83766, 83769, 83771, 83773
 83775, 83778, 83781, 83782, 83785, 83787, 85603, 85605, 85607, 85611, 85613, 85615, 85619, 85621, 85623, 85627
 85629, 85631, 85635, 85637, 85639, 85643, 85645, 85647, 85651, 85653, 85655, 85659, 85661, 85663, 85666, 85668
 85670, 85673, 85675, 85677, 85680, 85682, 85684, 85690, 85692, 85694, 85698, 85700, 85702, 85706, 85708, 85710
 85716, 85719, 85722, 85727, 85730, 85733, 85739, 85742, 85745, 85746, 85748, 85750, 85751, 85753, 85756, 85761
 85764, 85766, 85769, 85772, 85775, 85778, 85781, 85784, 85786, 85788, 85790, 85887, 85889, 85891, 85894, 85896
 85898, 85901, 85903, 85905, 85908, 85910, 85912, 85915, 85917, 85919, 85922, 85924, 85926, 85929, 85931, 85933
 85997, 86000, 86003, 86006, 86009, 86012, 86015, 86063, 86066, 86069, 86072, 86075, 86078, 86081, 86124, 86127
 86130, 86133, 86136, 86139, 86142, 86206, 86208, 86211, 86213, 86226, 86228, 86231, 86233, 86236, 86238, 86302
 86304, 86309, 86314, 86322, 86327, 86334, 86337, 86340, 86342, 86344, 86345, 86346, 86347, 86348, 86349, 86350
 86351, 86355, 86357, 86360, 86365, 86370, 86375, 86380, 86386, 86391, 86419, 86420, 86421, 86422, 86423, 86426
 86427, 86428, 86429, 86432, 86433, 86434, 86435, 86436, 86438, 86439, 86440, 86441, 86444, 86445, 86446, 86447
 86448, 86454, 86455, 86456, 86457, 86458, 86459, 86460, 86461, 86462, 86463, 86464, 86465, 86466, 86467, 86558
 86559, 86560, 86561, 86564, 86565, 86566, 86567, 87145, 87147, 87149, 87151, 87153, 87155, 87157, 87181, 87182
** ... 31 like lines cut
*Nset, nset=SET-21-C6ISH, instance=PART-1_1-1
 89220, 89221, 89222, 89223, 89224, 89225, 89226, 89227, 89228, 89229, 89230, 89231, 89232, 89233, 89234, 89235
 89237, 89238, 89239, 89240, 89241, 89242, 89243, 89244, 89245, 89246, 89247, 89248, 89249, 89250, 89251, 89252
 89253, 89254, 89255, 89256, 89258, 89259, 89260, 89261, 89262, 89263, 89264, 89265, 89266, 89267, 89268, 89269
 89270, 89271, 89272, 89273, 89274, 89275, 89276, 89277, 89279, 89280, 89281, 89282, 89283, 89284, 89285, 89286
 89287, 89288, 89289, 89290, 89291, 89292, 89293, 89294, 89295, 89296, 89297, 89298, 89302, 89303, 89304, 89305
 89306, 89307, 89308, 89309, 89310, 89311, 89312, 89313, 89314, 89315, 89316, 89317, 89318, 89319, 89320, 89321
 89322, 89323, 89324, 89325, 89330, 89331, 89332, 89333, 89334, 89335, 89336, 89337, 89338, 89339, 89340, 89341
 89342, 89343, 89344, 89345, 89346, 89347, 89348, 89349, 89350, 89351, 89352, 89353, 89355, 89356, 89357, 89358
 89359, 89360, 89361, 89362, 89363, 89364, 89365, 89366, 89367, 89368, 89369, 89370, 89371, 89372, 89373, 89374
 89375, 89376, 89377, 89378, 89379, 89380, 89381, 89383, 89384, 89385, 89386, 89387, 89388, 89389, 89390, 89391
 89392, 89393, 89394, 89395, 89396, 89397, 89398, 89399, 89400, 89401, 89402, 89403, 89404, 89405, 89406, 89407
 89408, 89409, 89411, 89412, 89413, 89414, 89415, 89416, 89417, 89418, 89419, 89420, 89421, 89422, 89423, 89424
 89425, 89426, 89427, 89428, 89429, 89430, 89431, 89432, 89433, 89434, 89435, 89436, 89437, 89439, 89440, 89441
 89442, 89443, 89444, 89445, 89446, 89447, 89448, 89449, 89450, 89451, 89452, 89453, 89454, 89455, 89456, 89457
 89458, 89459, 89460, 89461, 89462, 89463, 89464, 89465, 89467, 89468, 89469, 89470, 89471, 89472, 89473, 89474
 89475, 89476, 89477, 89478, 89479, 89480, 89481, 89482, 89483, 89484, 89485, 89486, 89487, 89488, 89489, 89490
 89491, 89492, 89493, 89498, 89499, 89500, 89501, 89502, 89503, 89504, 89505, 89506, 89507, 89508, 89509, 89510
 89511, 89512, 89513, 89514, 89515, 89519, 89520, 89521, 89522, 89523, 89524, 89525, 89526, 89527, 89528, 89529
 89530, 89531, 89532, 89533, 89534, 89535, 89536, 89538, 89539, 89540, 89541, 89542, 89543, 89544, 89545, 89546
 89547, 89548, 89550, 89551, 89552, 89553, 89554, 89556, 89557, 89559, 89560, 89561, 89562, 89563, 89564, 89565
** ... 28 like lines cut
*Nset, nset=SET-22-C5ISH, instance=PART-1_1-1
 89942, 89949, 89954, 89964, 89971, 89977, 89983, 89988, 89992, 90002, 90013, 90023, 90027, 90032, 90036, 90042
 90046, 90051, 90055, 90060, 90076, 90090, 90097, 90101, 90109, 90125, 90139, 90143, 90151, 90164, 90177, 90184
 90192, 90204, 90212, 90221, 90229, 90234, 90243, 90253, 90261, 90266, 90271, 90295, 90304, 90314, 90323, 90332
 90352, 90362, 90373, 90384, 90389, 90400, 90402, 90405, 90409, 90411, 90413, 90414, 90415, 90417, 90418, 90419
 90420, 90421, 90422, 90424, 90427, 90429, 90430, 90433, 90435, 90438, 90441, 90443, 90446, 90449, 90452, 90454
 90456, 90459, 90461, 90464, 90467, 90469, 90472, 90477, 90479, 90483, 90485, 90487, 90488, 90491, 90493, 90496
 90499, 90501, 90502, 90504, 90506, 90508, 90511, 90514, 90516, 90517, 90519, 90522, 90526, 90528, 90540, 90541
 90543, 90545, 90549, 90551, 90553, 90557, 90559, 90562, 90565, 90567, 90570, 90573, 90576, 90578, 90580, 90583
 90584, 90585, 90587, 90589, 90590, 90592, 90595, 90599, 90601, 90604, 90605, 90607, 90610, 90614, 90616, 90618
 90620, 90622, 90624, 90626, 90630, 90632, 90634, 90635, 90637, 90639, 90642, 90644, 90646, 90649, 90653, 90655
 90658, 90661, 90663, 90666, 90668, 90670, 90673, 90675, 90677, 90680, 90682, 90685, 90687, 90689, 90691, 90693
 90695, 90697, 90700, 90702, 90704, 90706, 90708, 90710, 90712, 90723, 90725, 90727, 90730, 90732, 90735, 90741
 90743, 90746, 90748, 90752, 90754, 90756, 90758, 90759, 90761, 90763, 90772, 90774, 90776, 90778, 90780, 90782
 90784, 90786, 90788, 90804, 90806, 90830, 90832, 90834, 90836, 90838, 90850, 90852, 90854, 90856, 90858, 90860
 90862, 90865, 90867, 90869, 90915, 90916, 90917, 90918, 90919, 90920, 90921, 90922, 90923, 90924, 90925, 90926
 90927, 90928, 90929, 90930, 90931, 90932, 90933, 90934, 90935, 90936, 90937, 90938, 90939, 90940, 90941, 90942
 90943, 90944, 90945, 90946, 90947, 90948, 90949, 90950, 90951, 90952, 90953, 90954, 90955, 90956, 90957, 90958
 90959, 90960, 90962, 90963, 90964, 90965, 90966, 90967, 90968, 90969, 90970, 90971, 90972, 90973, 90974, 90975
 90976, 90977, 90978, 90979, 90980, 90981, 90982, 90983, 90984, 90985, 90986, 90987, 90988, 90989, 90990, 90991
 90992, 90993, 90994, 90995, 90996, 90997, 90998, 90999, 91000, 91001, 91002, 91003, 91004, 91005, 91006, 91007
** ... 11 like lines cut
*Nset, nset=SET-23-COMPRESSED_AREAS_ONLY, instance=PART-1_1-1
 88999, 89003, 89007, 89011, 89015, 89019, 89023, 89027, 89031, 89035, 89039, 89043, 89047, 89051, 89055, 89059
 89063, 89067, 89071, 89075, 89079, 89083, 89087, 89091, 89095, 89099, 89103, 89107, 89111, 89115, 89119, 89123
 89127, 89131, 89135, 89139, 89143, 89147, 89151, 89155, 89159, 89163, 89167, 89171, 89178, 89182, 89186, 89190
 89195, 89199, 89203, 89207, 89211, 89216, 89220, 89221, 89222, 89223, 89224, 89225, 89226, 89227, 89228, 89229
 89230, 89231, 89232, 89233, 89234, 89235, 89237, 89238, 89239, 89240, 89241, 89242, 89243, 89244, 89245, 89246
 89247, 89248, 89249, 89250, 89251, 89252, 89253, 89254, 89255, 89256, 89258, 89259, 89260, 89261, 89262, 89263
 89264, 89265, 89266, 89267, 89268, 89269, 89270, 89271, 89272, 89273, 89274, 89275, 89276, 89277, 89279, 89280
 89281, 89282, 89283, 89284, 89285, 89286, 89287, 89288, 89289, 89290, 89291, 89292, 89293, 89294, 89295, 89296
 89297, 89298, 89302, 89303, 89304, 89305, 89306, 89307, 89308, 89309, 89310, 89311, 89312, 89313, 89314, 89315
 89316, 89317, 89318, 89319, 89320, 89321, 89322, 89323, 89324, 89325, 89330, 89331, 89332, 89333, 89334, 89335
 89336, 89337, 89338, 89339, 89340, 89341, 89342, 89343, 89344, 89345, 89346, 89347, 89348, 89349, 89350, 89351
 89352, 89353, 89355, 89356, 89357, 89358, 89359, 89360, 89361, 89362, 89363, 89364, 89365, 89366, 89367, 89368
 89369, 89370, 89371, 89372, 89373, 89374, 89375, 89376, 89377, 89378, 89379, 89380, 89381, 89383, 89384, 89385
 89386, 89387, 89388, 89389, 89390, 89391, 89392, 89393, 89394, 89395, 89396, 89397, 89398, 89399, 89400, 89401
 89402, 89403, 89404, 89405, 89406, 89407, 89408, 89409, 89411, 89412, 89413, 89414, 89415, 89416, 89417, 89418
 89419, 89420, 89421, 89422, 89423, 89424, 89425, 89426, 89427, 89428, 89429, 89430, 89431, 89432, 89433, 89434
 89435, 89436, 89437, 89439, 89440, 89441, 89442, 89443, 89444, 89445, 89446, 89447, 89448, 89449, 89942, 89944
 89946, 89949, 89950, 89952, 89954, 89956, 89960, 89964, 89965, 89968, 89971, 89973, 89974, 89977, 89979, 89980
 89983, 89984, 89985, 89988, 89989, 89990, 89992, 89993, 89995, 90002, 90005, 90007, 90013, 90015, 90017, 90023
 90024, 90025, 90027, 90028, 90029, 90032, 90033, 90034, 90036, 90037, 90038, 90042, 90043, 90044, 90046, 90047
** ... 31 like lines cut
*Nset, nset=SITE1_BAND_1, instance=PART-1_1-1
 89942, 89944, 89949, 89950, 89954, 89956, 89964, 89965, 89971, 89973, 89977, 89983, 89984, 89988, 89989, 89992
 89993, 90002, 90005, 90013, 90015, 90023, 90027, 90028, 90032, 90033, 90036, 90037, 90042, 90043, 90046, 90047
 90051, 90055, 90056, 90060, 90063, 90076, 90078, 90090, 90093, 90097, 90101, 90109, 90116, 90125, 90129, 90139
 90140, 90143, 90144, 90151, 90164, 90177, 90179, 90184, 90186, 90192, 90195, 90204, 90206, 90212, 90221, 90229
 90230, 90234, 90237, 90243, 90245, 90253, 90261, 90266, 90271, 90274, 90286, 90288, 90295, 90304, 90314, 90323
 90332, 90335, 90352, 90355, 90362, 90373, 90384, 90389, 90687, 90754, 90854, 90931, 90951, 90955
*Nset, nset=SITE1_BAND_2, instance=PART-1_1-1
 89946, 89952, 89960, 89968, 89979, 89985, 89990, 89995, 90007, 90024, 90029, 90034, 90038, 90044, 90052, 90057
 90072, 90082, 90098, 90102, 90120, 90132, 90153, 90168, 90180, 90189, 90216, 90225, 90254, 90262, 90267, 90297
 90307, 90316, 90325, 90365, 90376, 90385, 90393, 90409, 90415, 90420, 90427, 90435, 90446, 90456, 90467, 90479
 90488, 90499, 90506, 90516, 90526, 90543, 90553, 90565, 90576, 90584, 90590, 90601, 90610, 90620, 90630, 90637
 90646, 90658, 90668, 90677, 90685, 90695, 90704, 90712, 90730, 90743, 90752, 90761, 90776, 90784, 90806, 90836
 90852, 90862, 90915, 90919, 90923, 90927, 90930, 90935, 90939, 90943, 90947, 90954
*Nset, nset=SITE1_BAND_3, instance=PART-1_1-1
 89974, 89980, 90017, 90025, 90048, 90053, 90095, 90099, 90104, 90141, 90145, 90160, 90171, 90200, 90208, 90218
 90227, 90231, 90239, 90247, 90256, 90263, 90268, 90276, 90290, 90300, 90309, 90318, 90328, 90347, 90357, 90368
 90378, 90386, 90396, 90405, 90414, 90419, 90424, 90433, 90443, 90454, 90464, 90477, 90487, 90496, 90504, 90514
 90522, 90541, 90551, 90562, 90573, 90583, 90589, 90599, 90607, 90618, 90624, 90626, 90635, 90644, 90655, 90666
 90675, 90682, 90693, 90702, 90710, 90727, 90741, 90748, 90759, 90774, 90782, 90804, 90834, 90850, 90860, 90869
 90918, 90922, 90926, 90929, 90934, 90938, 90942, 90946, 90950, 90953
*Nset, nset=SITE1_BAND_4, instance=PART-1_1-1
 89947, 89953, 89961, 89970, 89976, 89982, 89986, 89991, 89997, 90009, 90019, 90026, 90030, 90035, 90039, 90045
 90049, 90054, 90058, 90074, 90088, 90096, 90100, 90107, 90123, 90135, 90142, 90148, 90162, 90173, 90181, 90190
 90202, 90210, 90220, 90228, 90232, 90242, 90251, 90259, 90264, 90269, 90283, 90293, 90302, 90311, 90321, 90330
 90349, 90360, 90370, 90380, 90388, 90398, 90402, 90413, 90418, 90422, 90430, 90438, 90441, 90452, 90461, 90472
 90485, 90493, 90501, 90502, 90511, 90519, 90540, 90549, 90559, 90567, 90570, 90580, 90587, 90595, 90605, 90616
 90622, 90634, 90642, 90653, 90663, 90670, 90673, 90680, 90691, 90700, 90708, 90725, 90732, 90735, 90746, 90758
 90772, 90780, 90788, 90830, 90832, 90838, 90858, 90867, 90917, 90921, 90924, 90925, 90928, 90933, 90937, 90941
 90945, 90948, 90949, 90952
*Nset, nset=SITE1_BAND_5, instance=PART-1_1-1
 89737, 89746, 89750, 89753, 89759, 89760, 89762, 89763, 89765, 89768, 89772, 89775, 89778, 89779, 89781, 89782
 89785, 89788, 89791, 89794, 89798, 89800, 89802, 89803, 89805, 89808, 89812, 89816, 89819, 89822, 89823, 89826
 89830, 89834, 89841, 89844, 89847, 89850, 89855, 89858, 89861, 89864, 89869, 89872, 89876, 89879, 89883, 89887
 89890, 89896, 89899, 89903, 89907, 89911, 89915, 89918, 89922, 89926, 89929, 89933, 89936, 90400, 90411, 90417
 90421, 90429, 90449, 90459, 90469, 90483, 90491, 90508, 90517, 90528, 90545, 90557, 90578, 90585, 90592, 90604
 90614, 90632, 90639, 90649, 90661, 90689, 90697, 90706, 90723, 90756, 90763, 90778, 90786, 90856, 90865, 90916
 90920, 90932, 90936, 90940, 90944, 91004, 91017, 91029, 91041, 91053, 91465
*Nset, nset=S_SET-9
 3,
*Nset, nset=SET-7-CORDBASE_CNS_, internal, instance=PART-1_1-1
 76401, 76407, 82182, 82195, 82202, 82209, 82546, 82563, 82578, 82592, 82606, 82622, 83471, 83483, 83496, 83609
 83747, 83763, 83778, 85605, 85621, 85637, 85653, 85668, 85682, 85700, 85719, 85742, 85753, 85772, 85788, 85896
 85910, 85924, 86000, 86063, 86081, 86139, 86226, 86302, 86334, 86346, 86355, 86380, 86422, 86432, 86439, 86447
 86458, 86464, 86560, 87145, 87157, 87189
*Nset, nset=SET-8-CORDTOP_CNS_, internal, instance=PART-1_1-1, generate
 92554,  92872,      6
*Elset, elset=_CORD_SURF_S1, internal, instance=PART-1_1-1, generate
 76351,  76585,      6
*Elset, elset=_CORD_SURF_S2, internal, instance=PART-1_1-1
  8786,  8791,  8796,  8801,  9339,  9344, 16857, 16862, 23005, 23010, 23015, 23032, 23037, 23042, 23895, 23900
 27599, 27604, 29631, 29636, 29641, 30264, 30269, 30274, 30307, 30312, 30332, 30337, 73169, 73174, 73179, 73184
 73189, 73194, 73199, 73204, 73209, 73214, 73219, 73224
*Elset, elset=_CORD_SURF_S3, internal, instance=PART-1_1-1
  8782,  8783,  8784,  8785,  8786,  9340,  9341,  9342,  9343,  9344, 23011, 23012, 23013, 23014, 23015, 23896
 23897, 23898, 23899, 23900, 29637, 29638, 29639, 29640, 29641, 30308, 30309, 30310, 30311, 30312, 73175, 73176
 73177, 73178, 73179, 73200, 73201, 73202, 73203, 73204, 73225, 73226, 73227, 73228, 73229, 73250, 73251, 73252
 73253, 73254, 73275, 73276, 73277, 73278, 73279, 73300, 73363, 73364, 73365, 73366, 73387, 73388, 73389, 73390
 73391, 73412, 73413, 73414, 73415, 73416, 73437, 73438, 73439, 73440, 73441, 73462, 73463, 73464, 73465, 73466
 73487, 73488, 73489, 73490, 73507, 73508, 73509, 73510, 73527, 73528, 73529, 73530, 73547, 73548, 73549, 73550
 73567, 73568, 73569, 73570, 73587, 73588, 73589, 73590, 73607, 73608, 73609, 73610, 73627, 73628, 73629, 73630
 73647, 73648, 73649, 73650, 73667, 73668, 73669, 73670, 73687, 73688, 73689, 73690, 73707, 73708, 73709, 73710
 73727, 73728, 73729, 73730, 73747, 73748, 73749, 73750, 73911, 73912, 73913, 73914, 73931, 73932, 73933, 73934
 73951, 73952, 73953, 73954, 73971, 73972, 73973, 73974, 73991, 73992, 73993, 73994, 74011, 74012, 74013, 74014
 74031, 74032, 74033, 74034, 74051, 74052, 74053, 74054, 74071, 74072, 74073, 74074, 74091, 74092, 74093, 74094
 74111, 74112, 74113, 74126, 74127, 74128, 74141, 74142, 74143, 74156, 74157, 74158, 74171, 74172, 74173, 74186
 74187, 74188, 74201, 74202, 74203, 74216, 74217, 74218, 74231, 74232, 74233, 74234, 74251, 74252, 74253, 74254
 74271, 74272, 74273, 74274, 74291, 74292, 74293, 74294, 74311, 74312, 74313, 74314, 74331, 74332, 74333, 74334
 74351, 74352, 74353, 74354, 74371, 74372, 74373, 74374, 74391, 74392, 74393, 74394, 74411, 74412, 74413, 74414
 74503, 74504, 74505, 74506, 74523, 74524, 74525, 74526, 74543, 74544, 74545, 74546, 74563, 74564, 74565, 74566
 74583, 74584, 74585, 74586, 74603, 74604, 74605, 74606, 74623, 74624, 74633, 74634, 74643, 74644, 74653, 74654
 74663, 74664, 75393, 75394, 75403, 75404, 75413, 75414, 75423, 75424, 75433, 75434, 75443, 75444, 75477, 75478
 75487, 75488, 75497, 75498, 75507, 75508, 75517, 75518, 75527, 75528, 75529, 75542, 75543, 75544, 75557, 75558
 75559, 75572, 75573, 75574, 75587, 75588, 75589, 75602, 75603, 75604, 75617, 75618, 75619, 75632, 75633, 75634
** ... 9 like lines cut
*Elset, elset=_CORD_SURF_S4, internal, instance=PART-1_1-1
 73200, 73201, 73202, 73203, 73204, 73205, 73206, 73207, 73208, 73209, 73210, 73211, 73212, 73213, 73214, 73215
 73216, 73217, 73218, 73219, 73220, 73221, 73222, 73223, 73224, 73462, 73463, 73464, 73465, 73466, 73467, 73468
 73469, 73470, 73471, 73472, 73473, 73474, 73475, 73476, 73477, 73478, 73479, 73480, 73481, 73482, 73483, 73484
 73485, 73486, 73627, 73628, 73629, 73630, 73631, 73632, 73633, 73634, 73635, 73636, 73637, 73638, 73639, 73640
 73641, 73642, 73643, 73644, 73645, 73646, 73931, 73932, 73933, 73934, 73935, 73936, 73937, 73938, 73939, 73940
 73941, 73942, 73943, 73944, 73945, 73946, 73947, 73948, 73949, 73950, 74091, 74092, 74093, 74094, 74095, 74096
 74097, 74098, 74099, 74100, 74101, 74102, 74103, 74104, 74105, 74106, 74107, 74108, 74109, 74110, 74216, 74217
 74218, 74219, 74220, 74221, 74222, 74223, 74224, 74225, 74226, 74227, 74228, 74229, 74230, 74371, 74372, 74373
 74374, 74375, 74376, 74377, 74378, 74379, 74380, 74381, 74382, 74383, 74384, 74385, 74386, 74387, 74388, 74389
 74390, 74603, 74604, 74605, 74606, 74607, 74608, 74609, 74610, 74611, 74612, 74613, 74614, 74615, 74616, 74617
 74618, 74619, 74620, 74621, 74622, 75413, 75414, 75415, 75416, 75417, 75418, 75419, 75420, 75421, 75422, 75517
 75518, 75519, 75520, 75521, 75522, 75523, 75524, 75525, 75526, 75632, 75633, 75634, 75635, 75636, 75637, 75638
 75639, 75640, 75641, 75642, 75643, 75644, 75645, 75646, 75952, 75953, 75954, 75955, 75956, 75957, 75958, 75959
 75960, 75961, 75962, 75963, 75964, 75965, 75966, 76306, 76307, 76308, 76309, 76310, 76311, 76312, 76313, 76314
 76315, 76316, 76317, 76318, 76319, 76320, 76321, 76322, 76323, 76324, 76325, 76326, 76327, 76328, 76329, 76330
 76331, 76332, 76333, 76334, 76335, 76336, 76337, 76338, 76339, 76340, 76341, 76342, 76343, 76344, 76345, 76346
 76347, 76348, 76349, 76350, 76561, 76562, 76563, 76564, 76565, 76566, 76567, 76568, 76569, 76570, 76571, 76572
 76573, 76574, 76575, 76576, 76577, 76578, 76579, 76580, 76581, 76582, 76583, 76584, 76585, 76586, 76587, 76588
 76589, 76590
*Elset, elset=_CORD_SURF_S5, internal, instance=PART-1_1-1
  9325,  9326,  9327,  9328,  9339, 23006, 23007, 23008, 23009, 23010, 23043, 23044, 23893, 23894, 23895, 29632
 29633, 29634, 29635, 29636, 30275, 30276, 30305, 30306, 30307, 73170, 73171, 73172, 73173, 73174, 73195, 73196
 73197, 73198, 73199, 73220, 73221, 73222, 73223, 73224, 73245, 73246, 73247, 73248, 73249, 73270, 73271, 73272
 73273, 73274, 73295, 73296, 73297, 73298, 73299, 73382, 73383, 73384, 73385, 73386, 73407, 73408, 73409, 73410
 73411, 73432, 73433, 73434, 73435, 73436, 73457, 73458, 73459, 73460, 73461, 73482, 73483, 73484, 73485, 73486
 73503, 73504, 73505, 73506, 73523, 73524, 73525, 73526, 73543, 73544, 73545, 73546, 73563, 73564, 73565, 73566
 73583, 73584, 73585, 73586, 73603, 73604, 73605, 73606, 73623, 73624, 73625, 73626, 73643, 73644, 73645, 73646
 73663, 73664, 73665, 73666, 73683, 73684, 73685, 73686, 73703, 73704, 73705, 73706, 73723, 73724, 73725, 73726
 73743, 73744, 73745, 73746, 73907, 73908, 73909, 73910, 73927, 73928, 73929, 73930, 73947, 73948, 73949, 73950
 73967, 73968, 73969, 73970, 73987, 73988, 73989, 73990, 74007, 74008, 74009, 74010, 74027, 74028, 74029, 74030
 74047, 74048, 74049, 74050, 74067, 74068, 74069, 74070, 74087, 74088, 74089, 74090, 74107, 74108, 74109, 74110
 74123, 74124, 74125, 74138, 74139, 74140, 74153, 74154, 74155, 74168, 74169, 74170, 74183, 74184, 74185, 74198
 74199, 74200, 74213, 74214, 74215, 74228, 74229, 74230, 74247, 74248, 74249, 74250, 74267, 74268, 74269, 74270
 74287, 74288, 74289, 74290, 74307, 74308, 74309, 74310, 74327, 74328, 74329, 74330, 74347, 74348, 74349, 74350
 74367, 74368, 74369, 74370, 74387, 74388, 74389, 74390, 74407, 74408, 74409, 74410, 74499, 74500, 74501, 74502
 74519, 74520, 74521, 74522, 74539, 74540, 74541, 74542, 74559, 74560, 74561, 74562, 74579, 74580, 74581, 74582
 74599, 74600, 74601, 74602, 74619, 74620, 74621, 74622, 74631, 74632, 74641, 74642, 74651, 74652, 74661, 74662
 75391, 75392, 75401, 75402, 75411, 75412, 75421, 75422, 75431, 75432, 75441, 75442, 75475, 75476, 75485, 75486
 75495, 75496, 75505, 75506, 75515, 75516, 75525, 75526, 75539, 75540, 75541, 75554, 75555, 75556, 75569, 75570
 75571, 75584, 75585, 75586, 75599, 75600, 75601, 75614, 75615, 75616, 75629, 75630, 75631, 75644, 75645, 75646
** ... 9 like lines cut
*Elset, elset=_CORD_SURF_S6, internal, instance=PART-1_1-1
  8782,  8783,  8784,  8785,  8786,  8787,  8788,  8789,  8790,  8791,  8792,  8793,  8794,  8795,  8796,  8797
  8798,  8799,  8800,  8801,  9325,  9326,  9327,  9328,  9339, 73225, 73226, 73227, 73228, 73229, 73230, 73231
 73232, 73233, 73234, 73235, 73236, 73237, 73238, 73239, 73240, 73241, 73242, 73243, 73244, 73245, 73246, 73247
 73248, 73249, 73487, 73488, 73489, 73490, 73491, 73492, 73493, 73494, 73495, 73496, 73497, 73498, 73499, 73500
 73501, 73502, 73503, 73504, 73505, 73506, 73647, 73648, 73649, 73650, 73651, 73652, 73653, 73654, 73655, 73656
 73657, 73658, 73659, 73660, 73661, 73662, 73663, 73664, 73665, 73666, 73951, 73952, 73953, 73954, 73955, 73956
 73957, 73958, 73959, 73960, 73961, 73962, 73963, 73964, 73965, 73966, 73967, 73968, 73969, 73970, 74111, 74112
 74113, 74114, 74115, 74116, 74117, 74118, 74119, 74120, 74121, 74122, 74123, 74124, 74125, 74231, 74232, 74233
 74234, 74235, 74236, 74237, 74238, 74239, 74240, 74241, 74242, 74243, 74244, 74245, 74246, 74247, 74248, 74249
 74250, 74391, 74392, 74393, 74394, 74395, 74396, 74397, 74398, 74399, 74400, 74401, 74402, 74403, 74404, 74405
 74406, 74407, 74408, 74409, 74410, 74623, 74624, 74625, 74626, 74627, 74628, 74629, 74630, 74631, 74632, 75423
 75424, 75425, 75426, 75427, 75428, 75429, 75430, 75431, 75432, 75527, 75528, 75529, 75530, 75531, 75532, 75533
 75534, 75535, 75536, 75537, 75538, 75539, 75540, 75541, 75647, 75648, 75649, 75650, 75651, 75652, 75653, 75654
 75655, 75656, 75657, 75658, 75659, 75660, 75661, 75991, 75992, 75993, 75994, 75995, 75996, 75997, 75998, 75999
 76000, 76001, 76002, 76003, 76004, 76005, 76006, 76007, 76008, 76009, 76010, 76011, 76012, 76013, 76014, 76015
 76016, 76017, 76018, 76019, 76020, 76021, 76022, 76023, 76024, 76025, 76026, 76027, 76028, 76029, 76030, 76031
 76032, 76033, 76034, 76035, 76351, 76352, 76353, 76354, 76355, 76356, 76357, 76358, 76359, 76360, 76361, 76362
 76363, 76364, 76365, 76366, 76367, 76368, 76369, 76370, 76371, 76372, 76373, 76374, 76375, 76376, 76377, 76378
 76379, 76380
*Elset, elset=_CORD_SURF_S1_1, internal, instance=PART-1_1-1, generate
 76351,  76585,      6
*Elset, elset=_CORD_SURF_S2_1, internal, instance=PART-1_1-1
  8786,  8791,  8796,  8801,  9339,  9344, 16857, 16862, 23005, 23010, 23015, 23032, 23037, 23042, 23895, 23900
 27599, 27604, 29631, 29636, 29641, 30264, 30269, 30274, 30307, 30312, 30332, 30337, 73169, 73174, 73179, 73184
 73189, 73194, 73199, 73204, 73209, 73214, 73219, 73224
*Elset, elset=_CORD_SURF_S4_1, internal, instance=PART-1_1-1
 73200, 73201, 73202, 73203, 73204, 73205, 73206, 73207, 73208, 73209, 73210, 73211, 73212, 73213, 73214, 73215
 73216, 73217, 73218, 73219, 73220, 73221, 73222, 73223, 73224, 73462, 73463, 73464, 73465, 73466, 73467, 73468
 73469, 73470, 73471, 73472, 73473, 73474, 73475, 73476, 73477, 73478, 73479, 73480, 73481, 73482, 73483, 73484
 73485, 73486, 73627, 73628, 73629, 73630, 73631, 73632, 73633, 73634, 73635, 73636, 73637, 73638, 73639, 73640
 73641, 73642, 73643, 73644, 73645, 73646, 73931, 73932, 73933, 73934, 73935, 73936, 73937, 73938, 73939, 73940
 73941, 73942, 73943, 73944, 73945, 73946, 73947, 73948, 73949, 73950, 74091, 74092, 74093, 74094, 74095, 74096
 74097, 74098, 74099, 74100, 74101, 74102, 74103, 74104, 74105, 74106, 74107, 74108, 74109, 74110, 74216, 74217
 74218, 74219, 74220, 74221, 74222, 74223, 74224, 74225, 74226, 74227, 74228, 74229, 74230, 74371, 74372, 74373
 74374, 74375, 74376, 74377, 74378, 74379, 74380, 74381, 74382, 74383, 74384, 74385, 74386, 74387, 74388, 74389
 74390, 74603, 74604, 74605, 74606, 74607, 74608, 74609, 74610, 74611, 74612, 74613, 74614, 74615, 74616, 74617
 74618, 74619, 74620, 74621, 74622, 75413, 75414, 75415, 75416, 75417, 75418, 75419, 75420, 75421, 75422, 75517
 75518, 75519, 75520, 75521, 75522, 75523, 75524, 75525, 75526, 75632, 75633, 75634, 75635, 75636, 75637, 75638
 75639, 75640, 75641, 75642, 75643, 75644, 75645, 75646, 75952, 75953, 75954, 75955, 75956, 75957, 75958, 75959
 75960, 75961, 75962, 75963, 75964, 75965, 75966, 76306, 76307, 76308, 76309, 76310, 76311, 76312, 76313, 76314
 76315, 76316, 76317, 76318, 76319, 76320, 76321, 76322, 76323, 76324, 76325, 76326, 76327, 76328, 76329, 76330
 76331, 76332, 76333, 76334, 76335, 76336, 76337, 76338, 76339, 76340, 76341, 76342, 76343, 76344, 76345, 76346
 76347, 76348, 76349, 76350, 76561, 76562, 76563, 76564, 76565, 76566, 76567, 76568, 76569, 76570, 76571, 76572
 76573, 76574, 76575, 76576, 76577, 76578, 76579, 76580, 76581, 76582, 76583, 76584, 76585, 76586, 76587, 76588
 76589, 76590
*Elset, elset=_CORD_SURF_S6_1, internal, instance=PART-1_1-1
  8782,  8783,  8784,  8785,  8786,  8787,  8788,  8789,  8790,  8791,  8792,  8793,  8794,  8795,  8796,  8797
  8798,  8799,  8800,  8801,  9325,  9326,  9327,  9328,  9339, 73225, 73226, 73227, 73228, 73229, 73230, 73231
 73232, 73233, 73234, 73235, 73236, 73237, 73238, 73239, 73240, 73241, 73242, 73243, 73244, 73245, 73246, 73247
 73248, 73249, 73487, 73488, 73489, 73490, 73491, 73492, 73493, 73494, 73495, 73496, 73497, 73498, 73499, 73500
 73501, 73502, 73503, 73504, 73505, 73506, 73647, 73648, 73649, 73650, 73651, 73652, 73653, 73654, 73655, 73656
 73657, 73658, 73659, 73660, 73661, 73662, 73663, 73664, 73665, 73666, 73951, 73952, 73953, 73954, 73955, 73956
 73957, 73958, 73959, 73960, 73961, 73962, 73963, 73964, 73965, 73966, 73967, 73968, 73969, 73970, 74111, 74112
 74113, 74114, 74115, 74116, 74117, 74118, 74119, 74120, 74121, 74122, 74123, 74124, 74125, 74231, 74232, 74233
 74234, 74235, 74236, 74237, 74238, 74239, 74240, 74241, 74242, 74243, 74244, 74245, 74246, 74247, 74248, 74249
 74250, 74391, 74392, 74393, 74394, 74395, 74396, 74397, 74398, 74399, 74400, 74401, 74402, 74403, 74404, 74405
 74406, 74407, 74408, 74409, 74410, 74623, 74624, 74625, 74626, 74627, 74628, 74629, 74630, 74631, 74632, 75423
 75424, 75425, 75426, 75427, 75428, 75429, 75430, 75431, 75432, 75527, 75528, 75529, 75530, 75531, 75532, 75533
 75534, 75535, 75536, 75537, 75538, 75539, 75540, 75541, 75647, 75648, 75649, 75650, 75651, 75652, 75653, 75654
 75655, 75656, 75657, 75658, 75659, 75660, 75661, 75991, 75992, 75993, 75994, 75995, 75996, 75997, 75998, 75999
 76000, 76001, 76002, 76003, 76004, 76005, 76006, 76007, 76008, 76009, 76010, 76011, 76012, 76013, 76014, 76015
 76016, 76017, 76018, 76019, 76020, 76021, 76022, 76023, 76024, 76025, 76026, 76027, 76028, 76029, 76030, 76031
 76032, 76033, 76034, 76035, 76351, 76352, 76353, 76354, 76355, 76356, 76357, 76358, 76359, 76360, 76361, 76362
 76363, 76364, 76365, 76366, 76367, 76368, 76369, 76370, 76371, 76372, 76373, 76374, 76375, 76376, 76377, 76378
 76379, 76380
*Elset, elset=_CORD_SURF_S3_1, internal, instance=PART-1_1-1
  8782,  8783,  8784,  8785,  8786,  9340,  9341,  9342,  9343,  9344, 23011, 23012, 23013, 23014, 23015, 23896
 23897, 23898, 23899, 23900, 29637, 29638, 29639, 29640, 29641, 30308, 30309, 30310, 30311, 30312, 73175, 73176
 73177, 73178, 73179, 73200, 73201, 73202, 73203, 73204, 73225, 73226, 73227, 73228, 73229, 73250, 73251, 73252
 73253, 73254, 73275, 73276, 73277, 73278, 73279, 73300, 73363, 73364, 73365, 73366, 73387, 73388, 73389, 73390
 73391, 73412, 73413, 73414, 73415, 73416, 73437, 73438, 73439, 73440, 73441, 73462, 73463, 73464, 73465, 73466
 73487, 73488, 73489, 73490, 73507, 73508, 73509, 73510, 73527, 73528, 73529, 73530, 73547, 73548, 73549, 73550
 73567, 73568, 73569, 73570, 73587, 73588, 73589, 73590, 73607, 73608, 73609, 73610, 73627, 73628, 73629, 73630
 73647, 73648, 73649, 73650, 73667, 73668, 73669, 73670, 73687, 73688, 73689, 73690, 73707, 73708, 73709, 73710
 73727, 73728, 73729, 73730, 73747, 73748, 73749, 73750, 73911, 73912, 73913, 73914, 73931, 73932, 73933, 73934
 73951, 73952, 73953, 73954, 73971, 73972, 73973, 73974, 73991, 73992, 73993, 73994, 74011, 74012, 74013, 74014
 74031, 74032, 74033, 74034, 74051, 74052, 74053, 74054, 74071, 74072, 74073, 74074, 74091, 74092, 74093, 74094
 74111, 74112, 74113, 74126, 74127, 74128, 74141, 74142, 74143, 74156, 74157, 74158, 74171, 74172, 74173, 74186
 74187, 74188, 74201, 74202, 74203, 74216, 74217, 74218, 74231, 74232, 74233, 74234, 74251, 74252, 74253, 74254
 74271, 74272, 74273, 74274, 74291, 74292, 74293, 74294, 74311, 74312, 74313, 74314, 74331, 74332, 74333, 74334
 74351, 74352, 74353, 74354, 74371, 74372, 74373, 74374, 74391, 74392, 74393, 74394, 74411, 74412, 74413, 74414
 74503, 74504, 74505, 74506, 74523, 74524, 74525, 74526, 74543, 74544, 74545, 74546, 74563, 74564, 74565, 74566
 74583, 74584, 74585, 74586, 74603, 74604, 74605, 74606, 74623, 74624, 74633, 74634, 74643, 74644, 74653, 74654
 74663, 74664, 75393, 75394, 75403, 75404, 75413, 75414, 75423, 75424, 75433, 75434, 75443, 75444, 75477, 75478
 75487, 75488, 75497, 75498, 75507, 75508, 75517, 75518, 75527, 75528, 75529, 75542, 75543, 75544, 75557, 75558
 75559, 75572, 75573, 75574, 75587, 75588, 75589, 75602, 75603, 75604, 75617, 75618, 75619, 75632, 75633, 75634
** ... 9 like lines cut
*Elset, elset=_CORD_SURF_S5_1, internal, instance=PART-1_1-1
  9325,  9326,  9327,  9328,  9339, 23006, 23007, 23008, 23009, 23010, 23043, 23044, 23893, 23894, 23895, 29632
 29633, 29634, 29635, 29636, 30275, 30276, 30305, 30306, 30307, 73170, 73171, 73172, 73173, 73174, 73195, 73196
 73197, 73198, 73199, 73220, 73221, 73222, 73223, 73224, 73245, 73246, 73247, 73248, 73249, 73270, 73271, 73272
 73273, 73274, 73295, 73296, 73297, 73298, 73299, 73382, 73383, 73384, 73385, 73386, 73407, 73408, 73409, 73410
 73411, 73432, 73433, 73434, 73435, 73436, 73457, 73458, 73459, 73460, 73461, 73482, 73483, 73484, 73485, 73486
 73503, 73504, 73505, 73506, 73523, 73524, 73525, 73526, 73543, 73544, 73545, 73546, 73563, 73564, 73565, 73566
 73583, 73584, 73585, 73586, 73603, 73604, 73605, 73606, 73623, 73624, 73625, 73626, 73643, 73644, 73645, 73646
 73663, 73664, 73665, 73666, 73683, 73684, 73685, 73686, 73703, 73704, 73705, 73706, 73723, 73724, 73725, 73726
 73743, 73744, 73745, 73746, 73907, 73908, 73909, 73910, 73927, 73928, 73929, 73930, 73947, 73948, 73949, 73950
 73967, 73968, 73969, 73970, 73987, 73988, 73989, 73990, 74007, 74008, 74009, 74010, 74027, 74028, 74029, 74030
 74047, 74048, 74049, 74050, 74067, 74068, 74069, 74070, 74087, 74088, 74089, 74090, 74107, 74108, 74109, 74110
 74123, 74124, 74125, 74138, 74139, 74140, 74153, 74154, 74155, 74168, 74169, 74170, 74183, 74184, 74185, 74198
 74199, 74200, 74213, 74214, 74215, 74228, 74229, 74230, 74247, 74248, 74249, 74250, 74267, 74268, 74269, 74270
 74287, 74288, 74289, 74290, 74307, 74308, 74309, 74310, 74327, 74328, 74329, 74330, 74347, 74348, 74349, 74350
 74367, 74368, 74369, 74370, 74387, 74388, 74389, 74390, 74407, 74408, 74409, 74410, 74499, 74500, 74501, 74502
 74519, 74520, 74521, 74522, 74539, 74540, 74541, 74542, 74559, 74560, 74561, 74562, 74579, 74580, 74581, 74582
 74599, 74600, 74601, 74602, 74619, 74620, 74621, 74622, 74631, 74632, 74641, 74642, 74651, 74652, 74661, 74662
 75391, 75392, 75401, 75402, 75411, 75412, 75421, 75422, 75431, 75432, 75441, 75442, 75475, 75476, 75485, 75486
 75495, 75496, 75505, 75506, 75515, 75516, 75525, 75526, 75539, 75540, 75541, 75554, 75555, 75556, 75569, 75570
 75571, 75584, 75585, 75586, 75599, 75600, 75601, 75614, 75615, 75616, 75629, 75630, 75631, 75644, 75645, 75646
** ... 9 like lines cut
*Surface, type=ELEMENT, name=CORD_SURF
_CORD_SURF_S1_1, S1
_CORD_SURF_S2_1, S2
_CORD_SURF_S4_1, S4
_CORD_SURF_S6_1, S6
_CORD_SURF_S3_1, S3
_CORD_SURF_S5_1, S5
*End Assembly
*Amplitude, name=AMP-1-PRELOAD, definition=SMOOTH STEP
             0.,              0.,              1.,              1.
** 
** MATERIALS
** 
*Material, name=BONE
*Elastic
12000., 0.3
*Material, name=CORD
*Expansion
1.,
*Hyperelastic, ogden
 0.0306, 7.52, 6.77
*Material, name=IVD
*Hyperelastic, mooney-rivlin
 0.56, 0.14,   1.
*Material, name=LF
*Elastic
 3.8, 0.3
*Material, name=PLL
*Elastic
 35.7, 0.3
** 
** INTERACTION PROPERTIES
** 
*Surface Interaction, name=INTPROP-1
1.,
*Friction, slip tolerance=0.005
 0.05,
*Surface Behavior, pressure-overclosure=HARD
*Surface Interaction, name=INTPROP-2
1.,
*Friction, slip tolerance=0.005
 0.1,
*Surface Behavior, pressure-overclosure=HARD
** ----------------------------------------------------------------
** 
** STEP: Step-1
** 
*Step, name=Step-1, nlgeom=YES
*Static, stabilize, factor=0.0002, allsdtol=0., continue=NO
0.02, 1., 1e-05, 1.
** 
** PREDEFINED FIELDS
** 
** Name: Field-1   Type: Temperature
*Temperature, amplitude=AMP-1-PRELOAD
SITE1_BAND_1, 0.15
** Name: Field-2   Type: Temperature
*Temperature, amplitude=AMP-1-PRELOAD
SITE1_BAND_2, 0.136
** Name: Field-3   Type: Temperature
*Temperature, amplitude=AMP-1-PRELOAD
SITE1_BAND_3, 0.098
** Name: Field-4   Type: Temperature
*Temperature, amplitude=AMP-1-PRELOAD
SITE1_BAND_4, 0.052
** Name: Field-5   Type: Temperature
*Temperature, amplitude=AMP-1-PRELOAD
SITE1_BAND_5, 0.014
** 
** OUTPUT REQUESTS
** 
*Restart, write, frequency=0
** 
** FIELD OUTPUT: F-Output-3
** 
*Output, field
*Contact Output
CDISP, CSTRESS
** 
** FIELD OUTPUT: F-Output-1
** 
*Node Output
CF, NT, RF, U
** 
** FIELD OUTPUT: F-Output-2
** 
*Element Output, directions=YES
LE, PE, PEEQ, PEMAG, S, TEMP
** 
** HISTORY OUTPUT: H-Output-1
** 
*Output, history, variable=PRESELECT
*End Step
